Version 4
SHEET 1 880 680
WIRE 272 0 192 0
WIRE 464 0 352 0
WIRE 80 112 16 112
WIRE 192 112 192 0
WIRE 192 112 160 112
WIRE 368 112 192 112
WIRE 464 128 464 0
WIRE 464 128 432 128
WIRE 16 144 16 112
WIRE 192 144 192 112
WIRE 368 144 304 144
WIRE 304 208 304 144
WIRE 304 208 192 208
WIRE 304 224 304 208
FLAG 304 304 0
FLAG 16 224 0
FLAG 464 128 V2
FLAG 16 112 V1
SYMBOL res 176 96 R90
WINDOW 0 0 56 VBottom 2
WINDOW 3 32 56 VTop 2
SYMATTR InstName R1
SYMATTR Value 2k
SYMBOL res 368 -16 R90
WINDOW 0 0 56 VBottom 2
WINDOW 3 32 56 VTop 2
SYMATTR InstName R2
SYMATTR Value 2k
SYMBOL Misc\\signal 16 128 R0
WINDOW 123 24 132 Left 2
WINDOW 39 0 0 Left 2
SYMATTR InstName V1
SYMATTR Value 0
SYMATTR Value2 AC 1
SYMBOL Opamps\\opamp 400 64 R0
SYMATTR InstName U1
SYMBOL res 288 208 R0
SYMATTR InstName R3
SYMATTR Value 100
SYMBOL cap 176 144 R0
SYMATTR InstName C1
SYMATTR Value 2µ
TEXT -18 328 Left 2 !.ac lin 1000 1k 90k
TEXT 400 288 Left 2 !.inc opamp.sub
