Version 4
SHEET 1 900 680
WIRE 400 -192 96 -192
WIRE 864 -192 480 -192
WIRE 96 -80 96 -192
WIRE 176 -80 96 -80
WIRE 576 -80 544 -80
WIRE 688 -80 656 -80
WIRE 736 -80 688 -80
WIRE 864 -80 864 -192
WIRE 864 -80 816 -80
WIRE 688 16 688 -80
WIRE 688 16 640 16
WIRE 96 32 96 -80
WIRE 160 32 96 32
WIRE 256 32 256 -80
WIRE 256 32 224 32
WIRE 464 32 416 32
WIRE 544 32 544 -80
WIRE 544 32 528 32
WIRE 576 32 544 32
WIRE 656 48 640 48
WIRE 656 80 656 48
WIRE 96 128 96 32
WIRE 96 128 32 128
WIRE 160 128 96 128
WIRE 256 144 256 32
WIRE 256 144 224 144
WIRE 272 144 256 144
WIRE 416 144 416 32
WIRE 416 144 352 144
WIRE 448 144 416 144
WIRE 160 160 128 160
WIRE 864 160 864 -80
WIRE 864 160 512 160
WIRE 448 176 416 176
WIRE 128 192 128 160
WIRE 416 192 416 176
FLAG 656 80 0
FLAG 416 192 0
FLAG 128 192 0
FLAG -48 128 Vi
FLAG 864 160 Vo
FLAG -176 224 0
FLAG -176 144 Vi
SYMBOL res 48 112 R90
WINDOW 0 0 56 VBottom 2
WINDOW 3 32 56 VTop 2
SYMATTR InstName R1
SYMATTR Value 1
SYMBOL res 272 -96 R90
WINDOW 0 0 56 VBottom 2
WINDOW 3 32 56 VTop 2
SYMATTR InstName R2
SYMATTR Value 0.7071067812
SYMBOL res 368 128 R90
WINDOW 0 0 56 VBottom 2
WINDOW 3 28 56 VBottom 2
SYMATTR InstName R3
SYMATTR Value 1
SYMBOL cap 224 16 R90
WINDOW 0 0 32 VBottom 2
WINDOW 3 32 32 VTop 2
SYMATTR InstName C1
SYMATTR Value 1
SYMBOL Opamps\\opamp 192 80 R0
SYMATTR InstName U1
SYMBOL Opamps\\opamp 480 96 R0
SYMATTR InstName U2
SYMBOL Opamps\\opamp 608 -32 M0
SYMATTR InstName U3
SYMBOL cap 528 16 R90
WINDOW 0 0 32 VBottom 2
WINDOW 3 28 32 VBottom 2
SYMATTR InstName C2
SYMATTR Value 1
SYMBOL res 672 -96 R90
WINDOW 0 0 56 VBottom 2
WINDOW 3 32 56 VTop 2
SYMATTR InstName R4
SYMATTR Value 1
SYMBOL res 832 -96 R90
WINDOW 0 0 56 VBottom 2
WINDOW 3 32 56 VTop 2
SYMATTR InstName R5
SYMATTR Value 1
SYMBOL res 496 -208 R90
WINDOW 0 0 56 VBottom 2
WINDOW 3 28 56 VBottom 2
SYMATTR InstName R6
SYMATTR Value 1
SYMBOL voltage -176 128 R0
WINDOW 123 24 124 Left 2
WINDOW 39 0 0 Left 2
SYMATTR InstName V1
SYMATTR Value 0
SYMATTR Value2 AC 1
TEXT -210 272 Left 2 !.ac lin 1000 0.0001 1meg
TEXT 576 224 Left 2 !.inc opamp.sub
