Version 4
SHEET 1 880 680
WIRE 96 80 48 80
WIRE 224 80 176 80
WIRE 272 80 224 80
WIRE 400 80 352 80
WIRE 416 80 400 80
WIRE 48 128 48 80
WIRE 224 128 224 80
WIRE 400 128 400 80
WIRE 48 240 48 208
WIRE 224 240 224 192
WIRE 224 240 48 240
WIRE 400 240 400 208
WIRE 400 240 224 240
WIRE 224 272 224 240
FLAG 224 272 0
FLAG 48 80 Vin
IOPIN 48 80 In
FLAG 416 80 Vout
IOPIN 416 80 Out
SYMBOL voltage 48 112 R0
WINDOW 123 22 98 Left 2
WINDOW 39 0 0 Left 0
SYMATTR Value2 AC 1
SYMATTR InstName V1
SYMATTR Value ""
SYMBOL ind 80 96 R270
WINDOW 0 32 56 VTop 2
WINDOW 3 5 56 VBottom 2
SYMATTR InstName L1
SYMATTR Value {L1}
SYMBOL ind 256 96 R270
WINDOW 0 32 56 VTop 2
WINDOW 3 5 56 VBottom 2
SYMATTR InstName L2
SYMATTR Value {L2}
SYMBOL cap 208 128 R0
SYMATTR InstName C1
SYMATTR Value {C1}
SYMBOL res 384 112 R0
SYMATTR InstName R1
SYMATTR Value 1
TEXT 40 336 Left 2 !.param L1 = 1.5/norma\n.param L2 = 0.5/norma\n.param C1 = 1.33333/norma\n.param norma = 2*pi*f0\n.param f0 = 1
TEXT -40 472 Left 2 !.ac dec 1000 0.01 100
TEXT 408 328 Left 2 !.net I(R1) V1
