Version 4
SHEET 1 1324 1236
WIRE -720 -112 -720 -176
WIRE 352 -48 144 -48
WIRE 352 -16 352 -48
WIRE -720 16 -720 -32
WIRE -320 48 -432 48
WIRE -192 48 -320 48
WIRE 64 48 -192 48
WIRE 192 48 144 48
WIRE 192 64 192 48
WIRE -432 80 -432 48
WIRE -320 80 -320 48
WIRE 64 80 -80 80
WIRE -80 112 -80 80
WIRE 176 112 144 112
WIRE 352 112 352 64
WIRE 352 112 176 112
WIRE 192 144 144 144
WIRE -656 176 -736 176
WIRE -560 176 -576 176
WIRE 192 208 192 144
WIRE -736 224 -736 176
WIRE -192 320 -192 48
WIRE -144 320 -192 320
WIRE -48 320 -64 320
WIRE -976 336 -976 272
WIRE -976 336 -1072 336
WIRE -1072 352 -1072 336
WIRE -736 352 -736 304
WIRE -192 352 -192 320
WIRE -976 400 -976 336
WIRE -736 512 -736 432
FLAG -720 -176 In3
FLAG -560 176 In2
FLAG -720 16 0
FLAG -736 512 0
FLAG 64 16 In3
FLAG 64 -16 In2
FLAG 64 -48 TL
FLAG 176 112 TH
FLAG 64 144 TBANDPAS
FLAG 192 64 0
FLAG 144 16 V+
FLAG 144 -16 V-
FLAG -48 320 Vout
FLAG 64 112 Vout
FLAG -80 112 0
FLAG -1072 352 0
FLAG -976 192 V+
FLAG -976 480 V-
FLAG -320 160 TL
FLAG 192 288 TBANDPAS
FLAG -432 160 TH
FLAG -192 432 0
SYMBOL res -736 -128 R0
SYMATTR InstName RQ
SYMATTR Value 9k
SYMBOL voltage -736 208 R0
WINDOW 123 24 124 Left 2
WINDOW 39 0 0 Left 0
SYMATTR Value2 AC 1
SYMATTR InstName V1
SYMATTR Value SINE(0 100m 110h)
SYMBOL voltage -736 336 R0
WINDOW 123 24 124 Left 2
WINDOW 39 0 0 Left 0
SYMATTR Value2 AC 1
SYMATTR InstName V2
SYMATTR Value SINE(0 1 500h)
SYMBOL res -560 160 R90
WINDOW 0 0 56 VBottom 2
WINDOW 3 32 56 VTop 2
SYMATTR InstName Rg
SYMATTR Value 50
SYMBOL UAF42 96 48 R0
SYMATTR InstName U5
SYMBOL res 368 80 R180
WINDOW 0 36 76 Left 2
WINDOW 3 36 40 Left 2
SYMATTR InstName RF1
SYMATTR Value 3.183Meg
SYMBOL res 208 304 R180
WINDOW 0 36 76 Left 2
WINDOW 3 36 40 Left 2
SYMATTR InstName RF2
SYMATTR Value 3.183Meg
SYMBOL res -48 304 R90
WINDOW 0 0 56 VBottom 2
WINDOW 3 32 56 VTop 2
SYMATTR InstName R23
SYMATTR Value 10k
SYMBOL voltage -976 176 R0
SYMATTR InstName V3
SYMATTR Value 3V
SYMBOL voltage -976 384 R0
SYMATTR InstName V4
SYMATTR Value 3V
SYMBOL res -304 176 R180
WINDOW 0 36 76 Left 2
WINDOW 3 36 40 Left 2
SYMATTR InstName R21
SYMATTR Value 2k
SYMBOL res -448 64 R0
WINDOW 0 -29 30 Left 2
WINDOW 3 -27 66 Left 2
SYMATTR InstName R22
SYMATTR Value 2k
SYMBOL res -208 336 R0
SYMATTR InstName R1
SYMATTR Value 250
TEXT -768 536 Left 2 !.ac dec 10000 20 80
TEXT -360 576 Left 2 ;Valores del integrado
TEXT -360 600 Left 2 !.param C = 1n\n.param R = 50k
