Version 4
SHEET 1 1324 1236
WIRE -704 432 -704 368
WIRE 976 544 448 544
WIRE -704 560 -704 512
WIRE 976 576 976 544
WIRE -16 640 -128 640
WIRE 112 640 -16 640
WIRE 368 640 112 640
WIRE 496 640 448 640
WIRE 496 656 496 640
WIRE -128 672 -128 640
WIRE -16 672 -16 640
WIRE 368 672 224 672
WIRE 224 704 224 672
WIRE 480 704 448 704
WIRE 976 704 976 656
WIRE 976 704 480 704
WIRE -640 720 -720 720
WIRE -544 720 -560 720
WIRE 496 736 448 736
WIRE -720 768 -720 720
WIRE 496 800 496 736
WIRE -960 880 -960 816
WIRE -960 880 -1056 880
WIRE -1056 896 -1056 880
WIRE -720 896 -720 848
WIRE 112 912 112 640
WIRE 160 912 112 912
WIRE 256 912 240 912
WIRE -960 944 -960 880
WIRE 112 944 112 912
WIRE -720 1056 -720 976
FLAG -704 368 In3
FLAG -544 720 In2
FLAG -704 560 0
FLAG -720 1056 0
FLAG 368 608 In3
FLAG 368 576 In2
FLAG 368 544 TL
FLAG 480 704 TH
FLAG 368 736 TBANDPAS
FLAG 496 656 0
FLAG 448 608 V+
FLAG 448 576 V-
FLAG 256 912 Vout
FLAG 368 704 Vout
FLAG 224 704 0
FLAG -1056 896 0
FLAG -960 736 V+
FLAG -960 1024 V-
FLAG -16 752 TL
FLAG 496 880 TBANDPAS
FLAG -128 752 TH
FLAG 112 1024 0
SYMBOL res -720 416 R0
SYMATTR InstName RQ
SYMATTR Value 9k
SYMBOL voltage -720 752 R0
WINDOW 123 24 124 Left 2
WINDOW 39 0 0 Left 0
SYMATTR Value2 AC 1
SYMATTR InstName V1
SYMATTR Value SINE(0 100m 110h)
SYMBOL voltage -720 880 R0
WINDOW 123 24 124 Left 2
WINDOW 39 0 0 Left 0
SYMATTR Value2 AC 1
SYMATTR InstName V2
SYMATTR Value SINE(0 1 500h)
SYMBOL res -544 704 R90
WINDOW 0 0 56 VBottom 2
WINDOW 3 32 56 VTop 2
SYMATTR InstName Rg
SYMATTR Value 50
SYMBOL UAF42 400 640 R0
SYMATTR InstName U5
SYMBOL res 992 672 R180
WINDOW 0 36 76 Left 2
WINDOW 3 36 40 Left 2
SYMATTR InstName RF1
SYMATTR Value 3.183Meg
SYMBOL res 512 896 R180
WINDOW 0 36 76 Left 2
WINDOW 3 36 40 Left 2
SYMATTR InstName RF2
SYMATTR Value 3.183Meg
SYMBOL res 256 896 R90
WINDOW 0 0 56 VBottom 2
WINDOW 3 32 56 VTop 2
SYMATTR InstName R23
SYMATTR Value 10k
SYMBOL voltage -960 720 R0
SYMATTR InstName V3
SYMATTR Value 3V
SYMBOL voltage -960 928 R0
SYMATTR InstName V4
SYMATTR Value 3V
SYMBOL res 0 768 R180
WINDOW 0 36 76 Left 2
WINDOW 3 36 40 Left 2
SYMATTR InstName R21
SYMATTR Value 2k
SYMBOL res -144 656 R0
WINDOW 0 -29 30 Left 2
WINDOW 3 -27 66 Left 2
SYMATTR InstName R22
SYMATTR Value 2k
SYMBOL res 96 928 R0
SYMATTR InstName R1
SYMATTR Value 250
TEXT -752 1080 Left 2 !.ac dec 10000 20 80
TEXT -56 1168 Left 2 ;Valores del integrado
TEXT -56 1192 Left 2 !.param C = 1n\n.param R = 50k
