Version 4
SHEET 1 880 680
WIRE 16 96 -80 96
WIRE 128 96 96 96
WIRE 288 96 192 96
WIRE 368 96 288 96
WIRE 528 96 432 96
WIRE 288 128 288 96
WIRE -80 176 -80 96
WIRE 528 176 528 96
WIRE 288 240 288 208
WIRE -80 336 -80 256
WIRE 288 336 288 304
WIRE 288 336 -80 336
WIRE 528 336 528 256
WIRE 528 336 288 336
WIRE 288 384 288 336
FLAG 288 384 0
SYMBOL ind 112 80 R90
WINDOW 0 5 56 VBottom 2
WINDOW 3 32 56 VTop 2
SYMATTR InstName L1
SYMATTR Value {L1}
SYMATTR SpiceLine Rser=1m
SYMBOL cap 192 80 R90
WINDOW 0 0 32 VBottom 2
WINDOW 3 32 32 VTop 2
SYMATTR InstName C2
SYMATTR Value {C1}
SYMBOL cap 304 304 R180
WINDOW 0 24 56 Left 2
WINDOW 3 24 8 Left 2
SYMATTR InstName C1
SYMATTR Value {C2}
SYMBOL ind 272 112 R0
SYMATTR InstName L2
SYMATTR Value {L2}
SYMATTR SpiceLine Rser=1m
SYMBOL cap 432 80 R90
WINDOW 0 0 32 VBottom 2
WINDOW 3 32 32 VTop 2
SYMATTR InstName C3
SYMATTR Value {C}
SYMBOL res 512 160 R0
SYMATTR InstName R1
SYMATTR Value 0.00000001m
SYMBOL voltage -80 160 R0
WINDOW 123 24 124 Left 2
WINDOW 39 24 152 Left 2
SYMATTR InstName V1
SYMATTR Value ""
SYMATTR Value2 AC 1 0
SYMATTR SpiceLine Rser=0.0000001
TEXT -128 368 Left 2 !.param Ww=(2*pi)\n.param L1=1/(3*Ww)\n.param L2=1/(6*Ww)\n.param C1=(3)/(4*Ww) \n.param C2=6/Ww\n.param C=(9)/(2*Ww)
TEXT -128 536 Left 2 !.net I(R1) V1
TEXT -128 560 Left 2 !.ac dec 1000 0.01 100
