Version 4
SHEET 1 880 680
WIRE -192 -48 -416 -48
WIRE 0 -48 -128 -48
WIRE -576 128 -640 128
WIRE -416 128 -416 -48
WIRE -416 128 -496 128
WIRE -384 128 -416 128
WIRE -240 128 -304 128
WIRE -112 128 -240 128
WIRE 0 144 0 -48
WIRE 0 144 -48 144
WIRE 128 144 0 144
WIRE 240 144 208 144
WIRE -640 160 -640 128
WIRE -240 160 -240 128
WIRE -112 160 -144 160
WIRE 240 160 240 144
WIRE -144 192 -144 160
WIRE 0 192 0 144
WIRE 0 192 -144 192
WIRE -640 256 -640 240
WIRE -240 256 -240 224
WIRE 240 256 240 224
FLAG -240 256 0
FLAG -640 256 0
FLAG 0 144 Vo1
FLAG -640 128 Vi
FLAG 240 256 0
FLAG 240 144 Vo
SYMBOL res 224 128 R90
WINDOW 0 0 56 VBottom 2
WINDOW 3 32 56 VTop 2
SYMATTR InstName R1
SYMATTR Value 1k
SYMBOL cap 224 160 R0
SYMATTR InstName C3
SYMATTR Value 86.128n
SYMBOL res -480 112 R90
WINDOW 0 0 56 VBottom 2
WINDOW 3 32 56 VTop 2
SYMATTR InstName R2
SYMATTR Value 0.5439k
SYMBOL res -288 112 R90
WINDOW 0 0 56 VBottom 2
WINDOW 3 32 56 VTop 2
SYMATTR InstName R3
SYMATTR Value 0.5439k
SYMBOL cap -256 160 R0
SYMATTR InstName C1
SYMATTR Value 104.74n
SYMBOL cap -128 -64 R90
WINDOW 0 0 32 VBottom 2
WINDOW 3 32 32 VTop 2
SYMATTR InstName C2
SYMATTR Value 200n
SYMBOL Opamps\\opamp -80 80 R0
SYMATTR InstName U1
SYMBOL voltage -640 144 R0
WINDOW 123 24 124 Left 2
WINDOW 39 0 0 Left 2
SYMATTR Value2 AC 1
SYMATTR InstName V1
SYMATTR Value ""
TEXT -64 -88 Left 2 !.inc opamp.sub
TEXT -672 288 Left 2 !.ac dec 1000 0.1 10k
